@<TRIPOS>MOLECULE
ligand_fixed.pdb
 57 59 0 0 0
SMALL
GASTEIGER

@<TRIPOS>ATOM
      1  O          7.0310   -2.9920   -0.7000 O.3     1  UNL1       -0.4855
      2  O          3.7260   -0.4300    1.5480 O.3     1  UNL1       -0.3883
      3  O          1.5130   -1.5370    1.6500 O.3     1  UNL1       -0.3863
      4  O          5.0290    1.3740   -0.0690 O.3     1  UNL1       -0.5064
      5  C          4.5210   -3.0560   -0.5310 C.3     1  UNL1        0.0079
      6  C          4.5120   -1.5050   -0.5430 C.3     1  UNL1        0.0262
      7  C          3.3290   -0.8250    0.2180 C.3     1  UNL1        0.0910
      8  C          5.8920   -3.7550   -0.2750 C.3     1  UNL1        0.1085
      9  C          1.9650   -1.5680    0.2760 C.3     1  UNL1        0.0896
     10  C          3.3530   -3.6620    0.2640 C.3     1  UNL1       -0.0433
     11  C          2.0430   -3.0220   -0.1800 C.3     1  UNL1       -0.0214
     12  C          5.8790   -0.8910   -0.3280 C.ar    1  UNL1        0.0416
     13  C          7.0400   -1.6600   -0.4150 C.ar    1  UNL1        0.1285
     14  C          6.1380   -4.2080    1.1730 C.3     1  UNL1       -0.0249
     15  C          5.9610   -5.0250   -1.1610 C.3     1  UNL1       -0.0249
     16  C          0.9110   -0.8050   -0.5380 C.3     1  UNL1       -0.0336
     17  C          6.0600    0.4900   -0.1790 C.ar    1  UNL1        0.1241
     18  C          8.3230   -1.0760   -0.3190 C.ar    1  UNL1       -0.0162
     19  C          8.4790    0.3060   -0.1620 C.ar    1  UNL1       -0.0404
     20  C          7.3180    1.0780   -0.1090 C.ar    1  UNL1       -0.0165
     21  C          9.8550    0.9490   -0.0540 C.3     1  UNL1       -0.0275
     22  C          9.7720    2.4810   -0.0120 C.3     1  UNL1       -0.0491
     23  C         11.0750    3.2620    0.0790 C.3     1  UNL1       -0.0530
     24  C         10.7160    4.7560    0.0330 C.3     1  UNL1       -0.0559
     25  C         11.9210    5.6680    0.1260 C.3     1  UNL1       -0.0653
     26  H          4.2840   -3.3000   -1.5810 H       1  UNL1        0.0346
     27  H          4.3010   -1.2620   -1.5980 H       1  UNL1        0.0381
     28  H          3.1270    0.1190   -0.3020 H       1  UNL1        0.0628
     29  H          3.4910   -3.5230    1.3420 H       1  UNL1        0.0270
     30  H          3.2950   -4.7400    0.0790 H       1  UNL1        0.0270
     31  H          1.9650   -3.0850   -1.2730 H       1  UNL1        0.0294
     32  H          1.2070   -3.5970    0.2350 H       1  UNL1        0.0294
     33  H          5.4020   -4.9480    1.5070 H       1  UNL1        0.0268
     34  H          6.1290   -3.3650    1.8690 H       1  UNL1        0.0268
     35  H          7.1270   -4.6770    1.2630 H       1  UNL1        0.0268
     36  H          5.8190   -4.7680   -2.2180 H       1  UNL1        0.0268
     37  H          5.2080   -5.7680   -0.8820 H       1  UNL1        0.0268
     38  H          6.9510   -5.4930   -1.1020 H       1  UNL1        0.0268
     39  H          1.2110   -0.7000   -1.5860 H       1  UNL1        0.0258
     40  H          0.7540    0.1990   -0.1210 H       1  UNL1        0.0258
     41  H         -0.0600   -1.3080   -0.4990 H       1  UNL1        0.0258
     42  H          2.9150   -0.5470    2.0920 H       1  UNL1        0.2099
     43  H          0.6540   -1.9950    1.6910 H       1  UNL1        0.2103
     44  H          9.1980   -1.7190   -0.3840 H       1  UNL1        0.0657
     45  H          7.3320    2.1520   -0.0120 H       1  UNL1        0.0657
     46  H         10.3410    0.5810    0.8570 H       1  UNL1        0.0313
     47  H         10.4610    0.6390   -0.9130 H       1  UNL1        0.0313
     48  H          4.6050    1.1200    0.7790 H       1  UNL1        0.2921
     49  H          9.1660    2.7770    0.8560 H       1  UNL1        0.0268
     50  H          9.2470    2.8220   -0.9150 H       1  UNL1        0.0268
     51  H         11.5970    3.0240    1.0130 H       1  UNL1        0.0265
     52  H         11.7360    3.0030   -0.7550 H       1  UNL1        0.0265
     53  H         10.1800    4.9730   -0.9000 H       1  UNL1        0.0263
     54  H         10.0260    4.9960    0.8520 H       1  UNL1        0.0263
     55  H         12.6540    5.4300   -0.6490 H       1  UNL1        0.0230
     56  H         12.3980    5.5830    1.1060 H       1  UNL1        0.0230
     57  H         11.6060    6.7090   -0.0100 H       1  UNL1        0.0230
@<TRIPOS>BOND
     1     1     8    1
     2     1    13    1
     3     2     7    1
     4     2    42    1
     5     3     9    1
     6     3    43    1
     7     4    17    1
     8     4    48    1
     9     5     6    1
    10     5     8    1
    11     5    10    1
    12     5    26    1
    13     6     7    1
    14     6    12    1
    15     6    27    1
    16     7     9    1
    17     7    28    1
    18     8    14    1
    19     8    15    1
    20     9    11    1
    21     9    16    1
    22    10    11    1
    23    10    29    1
    24    10    30    1
    25    11    31    1
    26    11    32    1
    27    12    13   ar
    28    12    17   ar
    29    13    18   ar
    30    14    33    1
    31    14    34    1
    32    14    35    1
    33    15    36    1
    34    15    37    1
    35    15    38    1
    36    16    39    1
    37    16    40    1
    38    16    41    1
    39    17    20   ar
    40    18    19   ar
    41    18    44    1
    42    19    20   ar
    43    19    21    1
    44    20    45    1
    45    21    22    1
    46    21    46    1
    47    21    47    1
    48    22    23    1
    49    22    49    1
    50    22    50    1
    51    23    24    1
    52    23    51    1
    53    23    52    1
    54    24    25    1
    55    24    53    1
    56    24    54    1
    57    25    55    1
    58    25    56    1
    59    25    57    1
