@<TRIPOS>MOLECULE
ligand_fixed.pdb
   57    59     1     0     0
SMALL
bcc


@<TRIPOS>ATOM
      1 O            7.0310    -2.9920    -0.7000 os         1 UNL      -0.332900
      2 O1           3.7260    -0.4300     1.5480 oh         1 UNL      -0.612800
      3 O2           1.5130    -1.5370     1.6500 oh         1 UNL      -0.616800
      4 O3           5.0290     1.3740    -0.0690 oh         1 UNL      -0.534100
      5 C            4.5210    -3.0560    -0.5310 c6         1 UNL      -0.071700
      6 C1           4.5120    -1.5050    -0.5430 c6         1 UNL       0.011600
      7 C2           3.3290    -0.8250     0.2180 c6         1 UNL       0.159100
      8 C3           5.8920    -3.7550    -0.2750 c6         1 UNL       0.160800
      9 C4           1.9650    -1.5680     0.2760 c6         1 UNL       0.116800
     10 C5           3.3530    -3.6620     0.2640 c6         1 UNL      -0.075400
     11 C6           2.0430    -3.0220    -0.1800 c6         1 UNL      -0.101400
     12 C7           5.8790    -0.8910    -0.3280 ca         1 UNL      -0.147300
     13 C8           7.0400    -1.6600    -0.4150 ca         1 UNL       0.128100
     14 C9           6.1380    -4.2080     1.1730 c3         1 UNL      -0.104100
     15 C10          5.9610    -5.0250    -1.1610 c3         1 UNL      -0.104100
     16 C11          0.9110    -0.8050    -0.5380 c3         1 UNL      -0.121100
     17 C12          6.0600     0.4900    -0.1790 ca         1 UNL       0.141100
     18 C13          8.3230    -1.0760    -0.3190 ca         1 UNL      -0.161000
     19 C14          8.4790     0.3060    -0.1620 ca         1 UNL      -0.043300
     20 C15          7.3180     1.0780    -0.1090 ca         1 UNL      -0.171000
     21 C16          9.8550     0.9490    -0.0540 c3         1 UNL      -0.037100
     22 C17          9.7720     2.4810    -0.0120 c3         1 UNL      -0.077400
     23 C18         11.0750     3.2620     0.0790 c3         1 UNL      -0.080400
     24 C19         10.7160     4.7560     0.0330 c3         1 UNL      -0.080400
     25 C20         11.9210     5.6680     0.1260 c3         1 UNL      -0.092100
     26 H            4.2840    -3.3000    -1.5810 hc         1 UNL       0.050700
     27 H1           4.3010    -1.2620    -1.5980 hc         1 UNL       0.064700
     28 H2           3.1270     0.1190    -0.3020 h1         1 UNL       0.065700
     29 H3           3.4910    -3.5230     1.3420 hc         1 UNL       0.058700
     30 H4           3.2950    -4.7400     0.0790 hc         1 UNL       0.058700
     31 H5           1.9650    -3.0850    -1.2730 hc         1 UNL       0.048200
     32 H6           1.2070    -3.5970     0.2350 hc         1 UNL       0.048200
     33 H7           5.4020    -4.9480     1.5070 hc         1 UNL       0.049200
     34 H8           6.1290    -3.3650     1.8690 hc         1 UNL       0.049200
     35 H9           7.1270    -4.6770     1.2630 hc         1 UNL       0.049200
     36 H10          5.8190    -4.7680    -2.2180 hc         1 UNL       0.049200
     37 H11          5.2080    -5.7680    -0.8820 hc         1 UNL       0.049200
     38 H12          6.9510    -5.4930    -1.1020 hc         1 UNL       0.049200
     39 H13          1.2110    -0.7000    -1.5860 hc         1 UNL       0.047700
     40 H14          0.7540     0.1990    -0.1210 hc         1 UNL       0.047700
     41 H15         -0.0600    -1.3080    -0.4990 hc         1 UNL       0.047700
     42 H16          2.9150    -0.5470     2.0920 ho         1 UNL       0.425000
     43 H17          0.6540    -1.9950     1.6910 ho         1 UNL       0.410000
     44 H18          9.1980    -1.7190    -0.3840 ha         1 UNL       0.148000
     45 H19          7.3320     2.1520    -0.0120 ha         1 UNL       0.147000
     46 H20         10.3410     0.5810     0.8570 hc         1 UNL       0.048700
     47 H21         10.4610     0.6390    -0.9130 hc         1 UNL       0.048700
     48 H22          4.6050     1.1200     0.7790 ho         1 UNL       0.437000
     49 H23          9.1660     2.7770     0.8560 hc         1 UNL       0.046200
     50 H24          9.2470     2.8220    -0.9150 hc         1 UNL       0.046200
     51 H25         11.5970     3.0240     1.0130 hc         1 UNL       0.038700
     52 H26         11.7360     3.0030    -0.7550 hc         1 UNL       0.038700
     53 H27         10.1800     4.9730    -0.9000 hc         1 UNL       0.039700
     54 H28         10.0260     4.9960     0.8520 hc         1 UNL       0.039700
     55 H29         12.6540     5.4300    -0.6490 hc         1 UNL       0.032367
     56 H30         12.3980     5.5830     1.1060 hc         1 UNL       0.032367
     57 H31         11.6060     6.7090    -0.0100 hc         1 UNL       0.032367
@<TRIPOS>BOND
     1     1     8 1   
     2     1    13 1   
     3     2     7 1   
     4     2    42 1   
     5     3     9 1   
     6     3    43 1   
     7     4    17 1   
     8     4    48 1   
     9     5     6 1   
    10     5     8 1   
    11     5    10 1   
    12     5    26 1   
    13     6     7 1   
    14     6    12 1   
    15     6    27 1   
    16     7     9 1   
    17     7    28 1   
    18     8    14 1   
    19     8    15 1   
    20     9    11 1   
    21     9    16 1   
    22    10    11 1   
    23    10    29 1   
    24    10    30 1   
    25    11    31 1   
    26    11    32 1   
    27    12    13 ar  
    28    12    17 ar  
    29    13    18 ar  
    30    14    33 1   
    31    14    34 1   
    32    14    35 1   
    33    15    36 1   
    34    15    37 1   
    35    15    38 1   
    36    16    39 1   
    37    16    40 1   
    38    16    41 1   
    39    17    20 ar  
    40    18    19 ar  
    41    18    44 1   
    42    19    20 ar  
    43    19    21 1   
    44    20    45 1   
    45    21    22 1   
    46    21    46 1   
    47    21    47 1   
    48    22    23 1   
    49    22    49 1   
    50    22    50 1   
    51    23    24 1   
    52    23    51 1   
    53    23    52 1   
    54    24    25 1   
    55    24    53 1   
    56    24    54 1   
    57    25    55 1   
    58    25    56 1   
    59    25    57 1   
@<TRIPOS>SUBSTRUCTURE
     1 UNL         1 TEMP              0 ****  ****    0 ROOT
